


 25 27  0  0001  0  0  0  0  0999 V2000
    8.9942   -2.1016    0.0000 O   0  0  0  0  0  0  0  0  0  0  0
    7.2458    0.9330    0.0000 O   0  0  0  0  0  0  0  0  0  0  0
    9.8602   -0.6016    0.0000 C   0  0  0  0  0  0  0  0  0  0  0
    8.9942   -0.1016    0.0000 C   0  0  0  0  0  0  0  0  0  0  0
    9.8602   -1.6016    0.0000 C   0  0  0  0  0  0  0  0  0  0  0
   10.7702   -0.0948    0.0000 C   0  0  0  0  0  0  0  0  0  0  0
    8.1282   -0.6016    0.0000 C   0  0  0  0  0  0  0  0  0  0  0
   10.7783    0.9468    0.0000 C   0  0  0  0  0  0  0  0  0  0  0
    8.9781    0.9399    0.0000 C   0  0  0  0  0  0  0  0  0  0  0
    9.8762    1.4676    0.0000 C   0  0  0  0  0  0  0  0  0  0  0
    8.1282   -1.6016    0.0000 C   0  0  0  0  0  0  0  0  0  0  0
   10.3602   -2.4676    0.0000 C   0  0  0  0  0  0  0  0  0  0  0
   10.8602   -1.6016    0.0000 C   0  0  0  0  0  0  0  0  0  0  0
    7.2342   -0.0670    0.0000 C   0  0  0  0  0  0  0  0  0  0  0
    7.2342   -2.1363    0.0000 C   0  0  0  0  0  0  0  0  0  0  0
    9.8723    2.4676    0.0000 C   0  0  0  0  0  0  0  0  0  0  0
    6.3282   -1.6224    0.0000 C   0  0  0  0  0  0  0  0  0  0  0
    6.3282   -0.5808    0.0000 C   0  0  0  0  0  0  0  0  0  0  0
    5.4641   -2.1258    0.0000 C   0  0  0  0  0  0  0  0  0  0  0
    4.5961   -1.6291    0.0000 C   0  0  0  0  0  0  0  0  0  0  0
    3.7320   -2.1324    0.0000 C   0  0  0  0  0  0  0  0  0  0  0
    2.8641   -1.6358    0.0000 C   0  0  0  0  0  0  0  0  0  0  0
    2.0000   -2.1391    0.0000 C   0  0  0  0  0  0  0  0  0  0  0
   10.5499   -1.0069    0.0000 H   0  0  0  0  0  0  0  0  0  0  0
    9.6839    0.3037    0.0000 H   0  0  0  0  0  0  0  0  0  0  0
  1  5  1  0
  1 11  1  0
  2 14  1  0
  3  4  1  0
  3  5  1  0
  3  6  1  0
  3 24  1  1
  4  7  1  0
  4  9  1  0
  4 25  1  6
  5 12  1  0
  5 13  1  0
  6  8  1  0
  7 11  1  0
  7 14  2  0
  8 10  1  0
  9 10  2  0
 10 16  1  0
 11 15  2  0
 14 18  1  0
 15 17  1  0
 17 18  2  0
 17 19  1  0
 19 20  1  0
 20 21  1  0
 21 22  1  0
 22 23  1  0
M  END

> <PUBCHEM_BONDANNOTATIONS>
11  15  8
14  18  8
15  17  8
17  18  8
3  24  5
4  25  6
7  11  8
7  14  8

> <StdInChI>
InChI=1S/C21H30O2/c1-5-6-7-8-15-12-18(22)20-16-11-14(2)9-10-17(16)21(3,4)23-19(20)13-15/h11-13,16-17,22H,5-10H2,1-4H3/t16-,17-/m0/s1

> <StdInChIKey>
CYQFCXCEBYINGO-IRXDYDNUSA-N

> <AuxInfo>
1/0/N:23,16,12,13,22,21,20,19,8,6,9,18,15,10,17,4,3,14,11,7,5,2,1/E:(3,4)/it:im/rA:53cOOCCCCCCCCCCCCCCCCCCCCCHHHHHHHHHHHHHHHHHHHHHHHHHHHHHH/rB:;;s3;s1s3;s3;s4;s6;s4;s8d9;s1s7;s5;s5;s2d7;d11;s10;s15;s14d17;s17;s19;s20;s21;s22;P3;N4;s6;s6;s8;s8;s9;s12;s12;s12;s13;s13;s13;s15;s16;s16;s16;s18;s19;s19;s20;s20;s2;s21;s21;s22;s22;s23;s23;s23;/rC:8.9942,-2.1016,0;7.2458,.933,0;9.8602,-.6016,0;8.9942,-.1016,0;9.8602,-1.6016,0;10.7702,-.0948,0;8.1282,-.6016,0;10.7783,.9468,0;8.9781,.9399,0;9.8762,1.4676,0;8.1282,-1.6016,0;10.3602,-2.4676,0;10.8602,-1.6016,0;7.2342,-.067,0;7.2342,-2.1363,0;9.8723,2.4676,0;6.3282,-1.6224,0;6.3282,-.5808,0;5.4641,-2.1258,0;4.5961,-1.6291,0;3.732,-2.1324,0;2.8641,-1.6358,0;2,-2.1391,0;10.5499,-1.0069,0;9.6839,.3037,0;11.3819,.0066,0;10.9748,-.6801,0;10.9918,1.5289,0;11.3883,.836,0;8.4377,1.2437,0;10.6702,-3.0046,0;10.8972,-2.1576,0;9.8233,-2.7776,0;10.8602,-2.2216,0;11.4802,-1.6016,0;10.8602,-.9816,0;7.2414,-2.7562,0;10.4923,2.47,0;9.8699,3.0876,0;9.2523,2.4652,0;5.7924,-.2687,0;5.8644,-2.5992,0;5.0674,-2.6022,0;4.1958,-1.1557,0;4.9928,-1.1526,0;6.7125,1.2492,0;4.1324,-2.6058,0;3.3353,-2.6089,0;2.4637,-1.1624,0;3.2608,-1.1593,0;1.6879,-1.6034,0;1.4643,-2.4512,0;2.3121,-2.6749,0;

> <Formula>
C21 H30 O2

> <Mw>
314.4617

> <SMILES>
O1C2=C([H])C(C([H])([H])C([H])([H])C([H])([H])C([H])([H])C([H])([H])[H])=C([H])C(=C2[C@@]2([H])C([H])=C(C([H])([H])[H])C([H])([H])C([H])([H])[C@]2([H])C1(C([H])([H])[H])C([H])([H])[H])O[H]

> <CSID>
118751

$$$$
